<routes>
    <vType id="ego_type" accel="2.0" decel="4.5" length="5.0" maxSpeed="30" color="red"/>
    <vType id="attacker_type" accel="6.0" decel="9.0" length="5.0" maxSpeed="50" color="yellow"/>

    <route id="r_ego" edges="E1 E2"/> 
    <route id="r_attacker" edges="-E3 E4"/> 

    <vehicle id="ego" type="ego_type" route="r_ego" depart="0.00" departLane="1" departPos="0" departSpeed="15"/>
    <vehicle id="attacker" type="attacker_type" route="r_attacker" depart="0.00" departLane="0" departPos="0" departSpeed="15"/>
</routes>