<routes>
    <vType id="braking_car" accel="2.0" decel="9.0" length="5.0" maxSpeed="30" speedMode="0"/>
    <vType id="ego_car" accel="2.0" decel="4.5" length="5.0" maxSpeed="30"/>

    <route id="r1" edges="E1 E2"/>

    <vehicle id="lead_1" type="braking_car" route="r1" depart="0" departPos="60" departSpeed="20" color="yellow">
        <stop edge="E1" endPos="150" duration="20"/>
    </vehicle>
    <vehicle id="ego" type="ego_car" route="r1" depart="0.5" departPos="20" departSpeed="25" color="red"/>
</routes>