<?xml version="1.0" encoding="UTF-8"?>

<!-- generated on 2025-11-04 21:46:41 by Eclipse SUMO netedit Version 1.24.0
<neteditConfiguration xmlns:xsi="http://www.w3.org/2001/XMLSchema-instance" xsi:noNamespaceSchemaLocation="http://sumo.dlr.de/xsd/neteditConfiguration.xsd">

    <input>
        <sumo-net-file value="C:\Users\jessi\OneDrive\Desktop\major_project\sumo\sumo_file.net.xml"/>
    </input>

    <output>
        <output-file value="C:\Users\jessi\OneDrive\Desktop\major_project\sumo\sumo_file.net.xml"/>
    </output>

    <processing>
        <geometry.min-radius.fix.railways value="false"/>
        <geometry.avoid-overlap value="false"/>
        <geometry.max-grade.fix value="false"/>
        <offset.disable-normalization value="true"/>
        <lefthand value="0"/>
    </processing>

    <junctions>
        <no-turnarounds value="true"/>
        <junctions.corner-detail value="5"/>
        <junctions.limit-turn-speed value="5.50"/>
        <rectangular-lane-cut value="0"/>
    </junctions>

    <pedestrian>
        <walkingareas value="0"/>
    </pedestrian>

</neteditConfiguration>
-->

<net version="1.20" junctionCornerDetail="5" limitTurnSpeed="5.50" avoidOverlap="0" xmlns:xsi="http://www.w3.org/2001/XMLSchema-instance" xsi:noNamespaceSchemaLocation="http://sumo.dlr.de/xsd/net_file.xsd">

    <location netOffset="0.00,0.00" convBoundary="-100.00,-100.00,300.00,100.00" origBoundary="-10000000000.00,-10000000000.00,10000000000.00,10000000000.00" projParameter="!"/>

    <edge id=":J4_0" function="internal">
        <lane id=":J4_0_0" index="0" speed="6.51" length="9.03" shape="98.40,7.20 98.05,4.75 97.00,3.00 95.25,1.95 92.80,1.60"/>
    </edge>
    <edge id=":J4_1" function="internal">
        <lane id=":J4_1_0" index="0" speed="13.89" length="17.60" shape="98.40,7.20 98.40,-10.40"/>
    </edge>
    <edge id=":J4_2" function="internal">
        <lane id=":J4_2_0" index="0" speed="8.00" length="14.19" shape="98.40,7.20 98.95,3.35 100.60,0.60 103.35,-1.05 107.20,-1.60"/>
    </edge>
    <edge id=":J4_3" function="internal">
        <lane id=":J4_3_0" index="0" speed="6.51" length="9.03" shape="107.20,1.60 104.75,1.95 103.00,3.00 101.95,4.75 101.60,7.20"/>
    </edge>
    <edge id=":J4_4" function="internal">
        <lane id=":J4_4_0" index="0" speed="13.89" length="14.40" shape="107.20,1.60 92.80,1.60"/>
    </edge>
    <edge id=":J4_5" function="internal">
        <lane id=":J4_5_0" index="0" speed="8.67" length="3.71" shape="107.20,1.60 103.56,0.89"/>
    </edge>
    <edge id=":J4_13" function="internal">
        <lane id=":J4_13_0" index="0" speed="8.67" length="13.14" shape="103.56,0.89 103.35,0.85 100.60,-1.40 98.95,-5.15 98.40,-10.40"/>
    </edge>
    <edge id=":J4_6" function="internal">
        <lane id=":J4_6_0" index="0" speed="6.51" length="9.03" shape="101.60,-10.40 101.95,-7.95 103.00,-6.20 104.75,-5.15 107.20,-4.80"/>
    </edge>
    <edge id=":J4_7" function="internal">
        <lane id=":J4_7_0" index="0" speed="13.89" length="17.60" shape="101.60,-10.40 101.60,7.20"/>
    </edge>
    <edge id=":J4_8" function="internal">
        <lane id=":J4_8_0" index="0" speed="8.67" length="16.85" shape="101.60,-10.40 101.05,-5.15 99.40,-1.40 96.65,0.85 92.80,1.60"/>
    </edge>
    <edge id=":J4_9" function="internal">
        <lane id=":J4_9_0" index="0" speed="6.51" length="9.03" shape="92.80,-4.80 95.25,-5.15 97.00,-6.20 98.05,-7.95 98.40,-10.40"/>
    </edge>
    <edge id=":J4_10" function="internal">
        <lane id=":J4_10_0" index="0" speed="13.89" length="14.40" shape="92.80,-4.80 107.20,-4.80"/>
        <lane id=":J4_10_1" index="1" speed="13.89" length="14.40" shape="92.80,-1.60 107.20,-1.60"/>
    </edge>
    <edge id=":J4_12" function="internal">
        <lane id=":J4_12_0" index="0" speed="8.00" length="4.07" shape="92.80,-1.60 96.65,-1.05 96.80,-0.96"/>
    </edge>
    <edge id=":J4_14" function="internal">
        <lane id=":J4_14_0" index="0" speed="8.00" length="10.13" shape="96.80,-0.96 99.40,0.60 101.05,3.35 101.60,7.20"/>
    </edge>

    <edge id="-E1" from="J4" to="J3" priority="-1">
        <lane id="-E1_0" index="0" speed="13.89" length="192.80" shape="92.80,1.60 -100.00,1.60"/>
    </edge>
    <edge id="-E2" from="J5" to="J4" priority="-1">
        <lane id="-E2_0" index="0" speed="13.89" length="192.80" shape="300.00,1.60 107.20,1.60"/>
    </edge>
    <edge id="-E3" from="J6" to="J4" priority="-1">
        <lane id="-E3_0" index="0" speed="13.89" length="92.80" shape="98.40,100.00 98.40,7.20"/>
    </edge>
    <edge id="-E4" from="J7" to="J4" priority="-1">
        <lane id="-E4_0" index="0" speed="13.89" length="89.60" shape="101.60,-100.00 101.60,-10.40"/>
    </edge>
    <edge id="E1" from="J3" to="J4" priority="-1">
        <lane id="E1_0" index="0" speed="13.89" length="192.80" shape="-100.00,-4.80 92.80,-4.80"/>
        <lane id="E1_1" index="1" speed="13.89" length="192.80" shape="-100.00,-1.60 92.80,-1.60"/>
    </edge>
    <edge id="E2" from="J4" to="J5" priority="-1">
        <lane id="E2_0" index="0" speed="13.89" length="192.80" shape="107.20,-4.80 300.00,-4.80"/>
        <lane id="E2_1" index="1" speed="13.89" length="192.80" shape="107.20,-1.60 300.00,-1.60"/>
    </edge>
    <edge id="E3" from="J4" to="J6" priority="-1">
        <lane id="E3_0" index="0" speed="13.89" length="92.80" shape="101.60,7.20 101.60,100.00"/>
    </edge>
    <edge id="E4" from="J4" to="J7" priority="-1">
        <lane id="E4_0" index="0" speed="13.89" length="89.60" shape="98.40,-10.40 98.40,-100.00"/>
    </edge>

    <junction id="J3" type="dead_end" x="-100.00" y="0.00" incLanes="-E1_0" intLanes="" shape="-100.00,0.00 -100.00,3.20 -100.00,0.00"/>
    <junction id="J4" type="priority" x="100.00" y="0.00" incLanes="-E3_0 -E2_0 -E4_0 E1_0 E1_1" intLanes=":J4_0_0 :J4_1_0 :J4_2_0 :J4_3_0 :J4_4_0 :J4_13_0 :J4_6_0 :J4_7_0 :J4_8_0 :J4_9_0 :J4_10_0 :J4_10_1 :J4_14_0" shape="96.80,7.20 103.20,7.20 103.64,4.98 104.20,4.20 104.98,3.64 105.98,3.31 107.20,3.20 107.20,-6.40 104.98,-6.84 104.20,-7.40 103.64,-8.18 103.31,-9.18 103.20,-10.40 96.80,-10.40 96.36,-8.18 95.80,-7.40 95.02,-6.84 94.02,-6.51 92.80,-6.40 92.80,3.20 95.02,3.64 95.80,4.20 96.36,4.98 96.69,5.98">
        <request index="0"  response="0000000010000" foes="0000100010000" cont="0"/>
        <request index="1"  response="1111000110000" foes="1111100110000" cont="0"/>
        <request index="2"  response="1110110110000" foes="1110110110000" cont="0"/>
        <request index="3"  response="0000000000000" foes="1000010000000" cont="0"/>
        <request index="4"  response="0000000000000" foes="1000110000111" cont="0"/>
        <request index="5"  response="1111000000000" foes="1111110000110" cont="1"/>
        <request index="6"  response="0110000000000" foes="0110000000000" cont="0"/>
        <request index="7"  response="1110000111000" foes="1110000111100" cont="0"/>
        <request index="8"  response="1110000110011" foes="1110000110111" cont="0"/>
        <request index="9"  response="0000000000000" foes="0000000100010" cont="0"/>
        <request index="10" response="0000000000000" foes="0000111100110" cont="0"/>
        <request index="11" response="0000000000000" foes="0000111100110" cont="0"/>
        <request index="12" response="0000000011000" foes="0000110111110" cont="1"/>
    </junction>
    <junction id="J5" type="dead_end" x="300.00" y="0.00" incLanes="E2_0 E2_1" intLanes="" shape="300.00,0.00 300.00,-6.40 300.00,0.00"/>
    <junction id="J6" type="dead_end" x="100.00" y="100.00" incLanes="E3_0" intLanes="" shape="100.00,100.00 103.20,100.00 100.00,100.00"/>
    <junction id="J7" type="dead_end" x="100.00" y="-100.00" incLanes="E4_0" intLanes="" shape="100.00,-100.00 96.80,-100.00 100.00,-100.00"/>

    <junction id=":J4_13_0" type="internal" x="103.56" y="0.89" incLanes=":J4_5_0 E1_0 E1_1" intLanes=":J4_1_0 :J4_2_0 :J4_7_0 :J4_8_0 :J4_9_0 :J4_10_0 :J4_10_1"/>
    <junction id=":J4_14_0" type="internal" x="96.80" y="-0.96" incLanes=":J4_12_0 -E2_0" intLanes=":J4_1_0 :J4_2_0 :J4_3_0 :J4_4_0 :J4_7_0 :J4_8_0"/>

    <connection from="-E2" to="E3" fromLane="0" toLane="0" via=":J4_3_0" dir="r" state="M"/>
    <connection from="-E2" to="-E1" fromLane="0" toLane="0" via=":J4_4_0" dir="s" state="M"/>
    <connection from="-E2" to="E4" fromLane="0" toLane="0" via=":J4_5_0" dir="l" state="m"/>
    <connection from="-E3" to="-E1" fromLane="0" toLane="0" via=":J4_0_0" dir="r" state="m"/>
    <connection from="-E3" to="E4" fromLane="0" toLane="0" via=":J4_1_0" dir="s" state="m"/>
    <connection from="-E3" to="E2" fromLane="0" toLane="1" via=":J4_2_0" dir="l" state="m"/>
    <connection from="-E4" to="E2" fromLane="0" toLane="0" via=":J4_6_0" dir="r" state="m"/>
    <connection from="-E4" to="E3" fromLane="0" toLane="0" via=":J4_7_0" dir="s" state="m"/>
    <connection from="-E4" to="-E1" fromLane="0" toLane="0" via=":J4_8_0" dir="l" state="m"/>
    <connection from="E1" to="E4" fromLane="0" toLane="0" via=":J4_9_0" dir="r" state="M"/>
    <connection from="E1" to="E2" fromLane="0" toLane="0" via=":J4_10_0" dir="s" state="M"/>
    <connection from="E1" to="E2" fromLane="1" toLane="1" via=":J4_10_1" dir="s" state="M"/>
    <connection from="E1" to="E3" fromLane="1" toLane="0" via=":J4_12_0" dir="l" state="m"/>

    <connection from=":J4_0" to="-E1" fromLane="0" toLane="0" dir="r" state="M"/>
    <connection from=":J4_1" to="E4" fromLane="0" toLane="0" dir="s" state="M"/>
    <connection from=":J4_2" to="E2" fromLane="0" toLane="1" dir="l" state="M"/>
    <connection from=":J4_3" to="E3" fromLane="0" toLane="0" dir="r" state="M"/>
    <connection from=":J4_4" to="-E1" fromLane="0" toLane="0" dir="s" state="M"/>
    <connection from=":J4_5" to="E4" fromLane="0" toLane="0" via=":J4_13_0" dir="l" state="m"/>
    <connection from=":J4_13" to="E4" fromLane="0" toLane="0" dir="l" state="M"/>
    <connection from=":J4_6" to="E2" fromLane="0" toLane="0" dir="r" state="M"/>
    <connection from=":J4_7" to="E3" fromLane="0" toLane="0" dir="s" state="M"/>
    <connection from=":J4_8" to="-E1" fromLane="0" toLane="0" dir="l" state="M"/>
    <connection from=":J4_9" to="E4" fromLane="0" toLane="0" dir="r" state="M"/>
    <connection from=":J4_10" to="E2" fromLane="0" toLane="0" dir="s" state="M"/>
    <connection from=":J4_10" to="E2" fromLane="1" toLane="1" dir="s" state="M"/>
    <connection from=":J4_12" to="E3" fromLane="0" toLane="0" via=":J4_14_0" dir="l" state="m"/>
    <connection from=":J4_14" to="E3" fromLane="0" toLane="0" dir="l" state="M"/>

</net>
